# Name: BTN
# Created by ModelServer 0.9.6

# model_server_result.job_id: YsKGw50aOXfCoHQtDcOIwq
# model_server_result.datetime_utc: 2021-03-17 14:18:52
# model_server_result.server_version: 0.9.6
# model_server_result.query_name: ligand
# model_server_result.source_id: pdb-bcif
# model_server_result.entry_id: 3efr

# model_server_params.name: atom_site
# model_server_params.value: {"label_asym_id":"G","auth_seq_id":1001}

# model_server_stats.io_time_ms: 12
# model_server_stats.parse_time_ms: 57
# model_server_stats.create_model_time_ms: 8
# model_server_stats.query_time_ms: 202
# model_server_stats.encode_time_ms: 0
# model_server_stats.element_count: 16

@<TRIPOS>MOLECULE
BTN
16 17 1
****
****

@<TRIPOS>ATOM
1 C11 14.015 -3.859 -13.603 C.2 1 BTN 0.000
2 O11 13.537 -4.274 -12.524 O.2 1 BTN 0.000
3 O12 15.226 -3.546 -13.642 O.3 1 BTN 0.000
4 C10 13.138 -3.726 -14.829 C.3 1 BTN 0.000
5 C9 13.864 -4.303 -16.039 C.3 1 BTN 0.000
6 C8 14.414 -3.193 -16.927 C.3 1 BTN 0.000
7 C7 13.317 -2.614 -17.811 C.3 1 BTN 0.000
8 C2 13.086 -3.513 -19.020 C.3 1 BTN 0.000
9 S1 14.500 -3.595 -19.913 S.3 1 BTN 0.000
10 C6 13.605 -3.726 -21.482 C.3 1 BTN 0.000
11 C5 12.196 -3.189 -21.334 C.3 1 BTN 0.000
12 N1 12.082 -1.842 -21.850 N.am 1 BTN 0.000
13 C3 11.879 -0.959 -20.880 C.2 1 BTN 0.000
14 O3 11.830 0.439 -21.053 O.2 1 BTN 0.000
15 N2 11.740 -1.579 -19.717 N.am 1 BTN 0.000
16 C4 11.913 -3.011 -19.855 C.3 1 BTN 0.000
@<TRIPOS>BOND
1 1 2 2
2 1 3 1
3 1 4 1
4 4 5 1
5 5 6 1
6 6 7 1
7 7 8 1
8 8 9 1
9 8 16 1
10 9 10 1
11 10 11 1
12 11 12 1
13 11 16 1
14 12 13 1
15 13 14 2
16 13 15 1
17 15 16 1
@<TRIPOS>SUBSTRUCTURE
1 BTN 1
